Transcript Start Time:  Sat May 27 00:48:51 2023
 
Current Directory: "D:\drone\CAD\Model\cfd\prop test.cffdb\toroidal"

              Welcome to Fluent Aero 2023 R1

              Copyright 1987-2023 ANSYS, Inc. All Rights Reserved.
              Unauthorized use, distribution or duplication is prohibited.
              This product is subject to U.S. laws governing export and re-export.
              For full Legal Notice, see documentation.

Build Time: Nov 28 2022 09:45:13 EST  Build Id: 10208  
 
Launching the Solver for 7 CPUs...Solver closed
Transcript Stop Time:  Sat May 27 00:49:02 2023
 
Total Transcript Time: 0 Minute 11 Second.
